@<TRIPOS>MOLECULE
2HYY_raw_wt_holo.pdb
70 74 1 0 0
SMALL
AMBER ff14SB


@<TRIPOS>ATOM
      1 C1         22.8270   11.7250   13.7800 C.ar      1 STI   -0.0431
      2 C6         22.0360   12.1770   14.8390 C.ar      1 STI   -0.0497
      3 C5         20.6680   11.8090   14.9590 C.ar      1 STI    0.0187
      4 C4         20.1400   11.0010   13.9470 C.ar      1 STI    0.0361
      5 N3         20.8920   10.5700   12.9040 N.ar      1 STI   -0.2640
      6 C2         22.1760   10.9310   12.8420 C.ar      1 STI    0.0268
      7 C7         19.7780   12.2610   16.1190 C.ar      1 STI    0.0771
      8 C12        20.2660   12.8280   17.2280 C.ar      1 STI   -0.0171
      9 C11        19.3470   13.1770   18.2350 C.ar      1 STI    0.0328
     10 N10        18.0470   12.9440   18.0700 N.ar      1 STI   -0.2234
     11 C9         17.5930   12.3830   16.9620 C.ar      1 STI    0.2184
     12 N8         18.4330   12.0210   15.9770 N.ar      1 STI   -0.2147
     13 N13        16.2540   12.1250   16.6950 N.pl3     1 STI   -0.2833
     14 C14        15.3460   12.2710   17.7100 C.ar      1 STI    0.0374
     15 C19        15.2340   11.3050   18.7320 C.ar      1 STI   -0.0295
     16 C18        14.2850   11.5390   19.7140 C.ar      1 STI   -0.0556
     17 C17        13.4510   12.6990   19.6990 C.ar      1 STI   -0.0403
     18 C16        13.5600   13.6330   18.6980 C.ar      1 STI    0.0346
     19 C15        14.5060   13.4010   17.6880 C.ar      1 STI   -0.0189
     20 N21        12.6590   14.7350   18.8140 N.am      1 STI   -0.2813
     21 C22        12.5890   15.6820   17.8510 C.2       1 STI    0.2472
     22 C23        11.4550   16.6420   17.9000 C.ar      1 STI    0.0374
     23 C25        11.0790   17.3300   16.7130 C.ar      1 STI   -0.0492
     24 C26        10.0060   18.2850   16.6780 C.ar      1 STI   -0.0530
     25 C27         9.2980   18.5360   17.8690 C.ar      1 STI   -0.0043
     26 C28         9.6620   17.8540   19.0650 C.ar      1 STI   -0.0530
     27 C29        10.7360   16.9080   19.1120 C.ar      1 STI   -0.0492
     28 C46         8.1960   19.5290   17.8320 C.3       1 STI   -0.0079
     29 N48         8.1910   20.4060   18.9880 N.4       1 STI    0.2575
     30 C53         9.4550   21.1520   19.1060 C.3       1 STI    0.0064
     31 C52         9.4480   22.0490   20.4020 C.3       1 STI    0.0057
     32 N51         8.1500   22.8120   20.4470 N.4       1 STI    0.2521
     33 C54         8.1830   23.6190   21.6400 C.3       1 STI   -0.0451
     34 C50         6.9280   22.0290   20.3800 C.3       1 STI    0.0057
     35 C49         6.9520   21.2300   19.0530 C.3       1 STI    0.0064
     36 O29        13.3990   15.8030   16.9310 O.2       1 STI   -0.2716
     37 C20        16.0750   10.0530   18.8150 C.3       1 STI   -0.0379
     38 H1         23.8741   11.9754   13.6954 H         1 STI    0.0639
     39 H6         22.4748   12.8224   15.5855 H         1 STI    0.0631
     40 H4         19.1008   10.7112   13.9977 H         1 STI    0.0847
     41 H2         22.7529   10.5797   11.9993 H         1 STI    0.0840
     42 H12        21.3239   13.0108   17.3459 H         1 STI    0.0662
     43 H11        19.6986   13.6365   19.1469 H         1 STI    0.0842
     44 H13        15.9571   11.8365   15.7737 H         1 STI    0.1559
     45 H18        14.1723   10.8231   20.5148 H         1 STI    0.0627
     46 H17        12.7250   12.8433   20.4855 H         1 STI    0.0643
     47 H15        14.5920   14.1059   16.8743 H         1 STI    0.0663
     48 H21        12.0650   14.8082   19.6276 H         1 STI    0.1560
     49 H25        11.6217   17.1264   15.8017 H         1 STI    0.0631
     50 H26         9.7493   18.7968   15.7623 H         1 STI    0.0628
     51 H28         9.1079   18.0576   19.9694 H         1 STI    0.0628
     52 H29        10.9970   16.4092   20.0337 H         1 STI    0.0631
     53 H462        7.2467   18.9945   17.7963 H         1 STI    0.0869
     54 H463        8.2953   20.1335   16.9304 H         1 STI    0.0869
     55 H48         8.1568   19.7970   19.7930 H         1 STI    0.2010
     56 H532       10.2838   20.4463   19.1629 H         1 STI    0.0870
     57 H533        9.5819   21.7869   18.2291 H         1 STI    0.0870
     58 H522        9.5344   21.4179   21.2865 H         1 STI    0.0870
     59 H523       10.2832   22.7485   20.3680 H         1 STI    0.0870
     60 H51         8.1455   23.4429   19.6583 H         1 STI    0.2003
     61 H502        6.8803   21.3427   21.2255 H         1 STI    0.0870
     62 H503        6.0636   22.6929   20.3949 H         1 STI    0.0870
     63 H492        6.9330   21.9232   18.2120 H         1 STI    0.0870
     64 H493        6.0797   20.5782   19.0059 H         1 STI    0.0870
     65 H541        7.2595   24.1928   21.7168 H         1 STI    0.0777
     66 H542        8.2828   22.9733   22.5125 H         1 STI    0.0777
     67 H543        9.0319   24.3012   21.5938 H         1 STI    0.0777
     68 H201       16.7660   10.0223   17.9725 H         1 STI    0.0280
     69 H202       15.4266    9.1774   18.7848 H         1 STI    0.0280
     70 H203       16.6391   10.0554   19.7477 H         1 STI    0.0280
@<TRIPOS>BOND
     1    1    2 ar
     2    1    6 ar
     3    9    8 ar
     4    9   10 ar
     5    8    7 ar
     6   14   13 1
     7   14   15 ar
     8   14   19 ar
     9   19   18 ar
    10   18   17 ar
    11   18   20 1
    12   17   16 ar
    13   16   15 ar
    14   15   37 1
    15    6    5 ar
    16   21   20 am
    17   21   22 1
    18   21   36 2
    19   22   23 ar
    20   22   27 ar
    21   23   24 ar
    22   24   25 ar
    23   25   26 ar
    24   25   28 1
    25   26   27 ar
    26    4    3 ar
    27    4    5 ar
    28   28   29 1
    29   35   29 1
    30   35   34 1
    31    3    2 ar
    32    3    7 1
    33   34   32 1
    34   31   30 1
    35   31   32 1
    36   30   29 1
    37   33   32 1
    38    7   12 ar
    39   11   10 ar
    40   11   12 ar
    41   11   13 1
    42   38    1 1
    43   39    2 1
    44   40    4 1
    45   41    6 1
    46   42    8 1
    47   43    9 1
    48   44   13 1
    49   45   16 1
    50   46   17 1
    51   47   19 1
    52   48   20 1
    53   49   23 1
    54   50   24 1
    55   51   26 1
    56   52   27 1
    57   53   28 1
    58   54   28 1
    59   55   29 1
    60   56   30 1
    61   57   30 1
    62   58   31 1
    63   59   31 1
    64   60   32 1
    65   61   34 1
    66   62   34 1
    67   63   35 1
    68   64   35 1
    69   65   33 1
    70   66   33 1
    71   67   33 1
    72   68   37 1
    73   69   37 1
    74   70   37 1
@<TRIPOS>SUBSTRUCTURE
     1 STI     1 RESIDUE           4 A     STI     0 ROOT
